Version 4
SHEET 1 980 1192
WIRE -1360 -384 -1360 -432
WIRE -1360 -272 -1360 -304
WIRE -1280 -272 -1360 -272
WIRE -1360 -224 -1360 -272
WIRE -784 -192 -784 -272
WIRE -1360 -112 -1360 -144
WIRE 288 -96 144 -96
WIRE 432 -96 368 -96
WIRE 496 -96 432 -96
WIRE 592 -96 576 -96
WIRE 432 -80 432 -96
WIRE -352 -48 -352 -128
WIRE -784 -32 -784 -112
WIRE 432 16 432 0
WIRE -352 80 -352 32
WIRE -48 96 -112 96
WIRE 144 96 144 -96
WIRE 144 96 32 96
WIRE 192 96 144 96
WIRE 336 96 272 96
WIRE 592 112 592 -96
WIRE 592 112 400 112
WIRE 672 112 592 112
WIRE 336 128 288 128
WIRE -784 176 -784 80
WIRE 288 176 288 128
WIRE -784 336 -784 256
FLAG -1280 -272 0
FLAG -1360 -112 Vss
FLAG -1360 -432 Vdd
FLAG 368 80 Vdd
FLAG 368 144 Vss
FLAG 672 112 Vout
FLAG -784 -32 0
FLAG -784 336 0
FLAG -112 96 0
FLAG 432 16 0
FLAG 288 176 Vin
FLAG -352 80 0
FLAG -352 -128 Vin
SYMBOL UniversalOpAmp2 368 112 R0
SYMATTR InstName U1
SYMBOL voltage -1360 -400 R0
SYMATTR InstName V1
SYMATTR Value 6
SYMBOL voltage -1360 -128 R180
WINDOW 0 24 96 Left 2
WINDOW 3 24 16 Left 2
SYMATTR InstName V2
SYMATTR Value -6
SYMBOL signal -784 -208 R0
SYMATTR InstName V3
SYMATTR Value AC 1.
SYMBOL signal -784 160 R0
WINDOW 123 24 132 Left 2
WINDOW 39 0 0 Left 0
SYMATTR InstName V4
SYMATTR Value PWL(0 0 100n 0 101n 1)
SYMBOL res 48 80 R90
WINDOW 0 0 56 VBottom 2
WINDOW 3 32 56 VTop 2
SYMATTR InstName R1
SYMATTR Value 1k
SYMBOL res 384 -112 R90
WINDOW 0 0 56 VBottom 2
WINDOW 3 32 56 VTop 2
SYMATTR InstName R2
SYMATTR Value 2k
SYMBOL res 448 16 R180
WINDOW 0 36 76 Left 2
WINDOW 3 36 40 Left 2
SYMATTR InstName R4
SYMATTR Value 4k
SYMBOL res 480 -80 R270
WINDOW 0 32 56 VTop 2
WINDOW 3 0 56 VBottom 2
SYMATTR InstName R3
SYMATTR Value 3k
SYMBOL Voltage -352 -64 R0
SYMATTR InstName V5
SYMATTR Value SINE(0 0.5 1k)
SYMBOL Voltage 288 96 R90
WINDOW 0 -32 56 VBottom 2
WINDOW 3 32 56 VTop 2
SYMATTR InstName V6
SYMATTR Value 0.5
TEXT -688 -264 Left 2 !;ac dec 100 0.1 1G
TEXT -672 112 Left 2 !.tran 1m
