Version 4
SHEET 1 4004 680
WIRE 720 -80 496 -80
WIRE 496 -64 496 -80
WIRE 720 -48 720 -80
WIRE 864 64 864 16
WIRE 896 64 864 64
WIRE 992 80 960 80
WIRE 496 96 496 16
WIRE 848 96 496 96
WIRE 896 96 848 96
WIRE 256 112 256 96
WIRE 496 128 496 96
WIRE 720 128 720 32
WIRE -16 144 -16 96
WIRE 848 208 848 96
WIRE 896 208 848 208
WIRE 992 208 992 80
WIRE 992 208 976 208
WIRE 496 240 496 208
WIRE 608 240 496 240
WIRE 720 240 720 208
WIRE 720 240 608 240
WIRE 608 272 608 240
FLAG -16 224 0
FLAG -16 96 vcc
FLAG 928 48 vcc
FLAG 928 112 0
FLAG 608 272 0
FLAG 496 -80 vcc
FLAG 256 192 0
FLAG 256 96 control
FLAG 864 -64 0
DATAFLAG 496 80 ""
SYMBOL Voltage -16 128 R0
SYMATTR InstName V1
SYMATTR Value 5
SYMBOL UniversalOpAmp 928 80 R0
WINDOW 0 350 -38 Left 2
SYMATTR InstName U8
SYMBOL res 992 224 M270
WINDOW 0 32 56 VTop 2
WINDOW 3 -20 57 VTop 2
SYMATTR InstName Rf
SYMATTR Value 10k
SYMBOL res 704 -64 R0
WINDOW 3 36 68 Left 2
SYMATTR InstName R1
SYMATTR Value 5k
SYMBOL res 704 112 R0
WINDOW 3 36 68 Left 2
SYMATTR InstName R3
SYMATTR Value 5k
SYMBOL res 480 112 R0
WINDOW 3 36 68 Left 2
SYMATTR InstName R2
SYMATTR Value 10k
SYMBOL res 480 -80 R0
SYMATTR InstName R4
SYMATTR Value R = V(control)
SYMBOL Misc\\signal 256 96 R0
WINDOW 123 0 0 Left 0
WINDOW 39 0 0 Left 0
SYMATTR InstName V2
SYMATTR Value PWL(0 2k 5 3k 10 2k)
SYMBOL voltage 864 32 R180
WINDOW 0 24 96 Left 2
WINDOW 3 24 16 Left 2
WINDOW 123 0 0 Left 0
WINDOW 39 0 0 Left 0
SYMATTR InstName V3
SYMATTR Value 4
TEXT 264 -72 Left 2 !.tran 0 10 0
